<edges xmlns:xsi="http://www.w3.org/2001/XMLSchema-instance" xsi:noNamespaceSchemaLocation="http://sumo.dlr.de/xsd/edges_file.xsd">
   <edge id="0to1" from="0" to="1" priority="1" numLanes="2" speed="90" />
   <edge id="1to0" from="1" to="0" priority="1" numLanes="2" speed="90" />
   <edge id="1to2" from="1" to="2" priority="1" numLanes="2" speed="90" />
   <edge id="2to1" from="2" to="1" priority="1" numLanes="2" speed="90" />
   <edge id="2to3" from="2" to="3" priority="1" numLanes="2" speed="90" />
   <edge id="3to2" from="3" to="2" priority="1" numLanes="2" speed="90" />
   <edge id="3to4" from="3" to="4" priority="1" numLanes="2" speed="90" />
   <edge id="4to3" from="4" to="3" priority="1" numLanes="2" speed="90" />
   <edge id="1to1+" from="1" to="1+" priority="1" numLanes="2" speed="90" />
   <edge id="1+to1" from="1+" to="1-" priority="1" numLanes="2" speed="90" />
   <edge id="1to1-" from="1" to="1-" priority="1" numLanes="2" speed="90" />
   <edge id="1-to1" from="1-" to="1" priority="1" numLanes="2" speed="90" />
   <edge id="2to2+" from="2" to="2+" priority="1" numLanes="2" speed="90" />
   <edge id="2+to2" from="2+" to="2" priority="1" numLanes="2" speed="90" />
   <edge id="3to3-" from="3" to="3-" priority="1" numLanes="2" speed="90" />
   <edge id="3-to3" from="3-" to="3" priority="1" numLanes="2" speed="90" />


</edges>
