<?xml version="1.0" encoding="UTF-8"?>

<!-- generated on 06/28/19 02:33:39 by Eclipse SUMO netconvert Version 1.2.0
<configuration xmlns:xsi="http://www.w3.org/2001/XMLSchema-instance" xsi:noNamespaceSchemaLocation="http://sumo.dlr.de/xsd/netconvertConfiguration.xsd">

    <input>
        <node-files value="input_nodes.nod.xml"/>
        <edge-files value="input_edges.edg.xml"/>
    </input>

    <output>
        <output-file value="network.net.xml"/>
    </output>

</configuration>
-->

<net version="1.1" junctionCornerDetail="5" limitTurnSpeed="5.50" xmlns:xsi="http://www.w3.org/2001/XMLSchema-instance" xsi:noNamespaceSchemaLocation="http://sumo.dlr.de/xsd/net_file.xsd">

    <location netOffset="0.00,100.00" convBoundary="0.00,0.00,400.00,200.00" origBoundary="0.00,-100.00,400.00,100.00" projParameter="!"/>

    <edge id=":0_0" function="internal">
        <lane id=":0_0_0" index="0" speed="3.65" length="4.67" shape="0.00,101.60 -1.20,100.80 -1.60,100.00 -1.20,99.20 0.00,98.40"/>
    </edge>
    <edge id=":1_0" function="internal">
        <lane id=":1_0_0" index="0" speed="6.51" length="9.03" shape="95.20,110.40 94.85,107.95 93.80,106.20 92.05,105.15 89.60,104.80"/>
    </edge>
    <edge id=":1_1" function="internal">
        <lane id=":1_1_0" index="0" speed="90.00" length="20.80" shape="95.20,110.40 95.20,89.60"/>
        <lane id=":1_1_1" index="1" speed="90.00" length="20.80" shape="98.40,110.40 98.40,89.60"/>
    </edge>
    <edge id=":1_3" function="internal">
        <lane id=":1_3_0" index="0" speed="9.26" length="6.96" shape="98.40,110.40 99.15,105.15 100.00,103.73"/>
    </edge>
    <edge id=":1_4" function="internal">
        <lane id=":1_4_0" index="0" speed="3.65" length="2.34" shape="98.40,110.40 99.20,109.20 100.00,108.80"/>
    </edge>
    <edge id=":1_20" function="internal">
        <lane id=":1_20_0" index="0" speed="9.26" length="12.40" shape="100.00,103.73 101.40,101.40 105.15,99.15 110.40,98.40"/>
    </edge>
    <edge id=":1_21" function="internal">
        <lane id=":1_21_0" index="0" speed="3.65" length="2.34" shape="100.00,108.80 100.80,109.20 101.60,110.40"/>
    </edge>
    <edge id=":1_5" function="internal">
        <lane id=":1_5_0" index="0" speed="6.51" length="9.03" shape="110.40,104.80 107.95,105.15 106.20,106.20 105.15,107.95 104.80,110.40"/>
    </edge>
    <edge id=":1_6" function="internal">
        <lane id=":1_6_0" index="0" speed="90.00" length="20.80" shape="110.40,104.80 89.60,104.80"/>
        <lane id=":1_6_1" index="1" speed="90.00" length="20.80" shape="110.40,101.60 89.60,101.60"/>
    </edge>
    <edge id=":1_8" function="internal">
        <lane id=":1_8_0" index="0" speed="9.26" length="19.35" shape="110.40,101.60 105.15,100.85 101.40,98.60 99.15,94.85 98.40,89.60"/>
    </edge>
    <edge id=":1_9" function="internal">
        <lane id=":1_9_0" index="0" speed="3.65" length="4.67" shape="110.40,101.60 109.20,100.80 108.80,100.00 109.20,99.20 110.40,98.40"/>
    </edge>
    <edge id=":1_10" function="internal">
        <lane id=":1_10_0" index="0" speed="6.51" length="9.03" shape="104.80,89.60 105.15,92.05 106.20,93.80 107.95,94.85 110.40,95.20"/>
    </edge>
    <edge id=":1_11" function="internal">
        <lane id=":1_11_0" index="0" speed="90.00" length="20.80" shape="104.80,89.60 104.80,110.40"/>
        <lane id=":1_11_1" index="1" speed="90.00" length="20.80" shape="101.60,89.60 101.60,110.40"/>
    </edge>
    <edge id=":1_13" function="internal">
        <lane id=":1_13_0" index="0" speed="9.26" length="6.96" shape="101.60,89.60 100.85,94.85 100.00,96.27"/>
    </edge>
    <edge id=":1_14" function="internal">
        <lane id=":1_14_0" index="0" speed="3.65" length="2.34" shape="101.60,89.60 100.80,90.80 100.00,91.20"/>
    </edge>
    <edge id=":1_22" function="internal">
        <lane id=":1_22_0" index="0" speed="9.26" length="12.40" shape="100.00,96.27 98.60,98.60 94.85,100.85 89.60,101.60"/>
    </edge>
    <edge id=":1_23" function="internal">
        <lane id=":1_23_0" index="0" speed="3.65" length="2.34" shape="100.00,91.20 99.20,90.80 98.40,89.60"/>
    </edge>
    <edge id=":1_15" function="internal">
        <lane id=":1_15_0" index="0" speed="6.51" length="9.03" shape="89.60,95.20 92.05,94.85 93.80,93.80 94.85,92.05 95.20,89.60"/>
    </edge>
    <edge id=":1_16" function="internal">
        <lane id=":1_16_0" index="0" speed="90.00" length="20.80" shape="89.60,95.20 110.40,95.20"/>
        <lane id=":1_16_1" index="1" speed="90.00" length="20.80" shape="89.60,98.40 110.40,98.40"/>
    </edge>
    <edge id=":1_18" function="internal">
        <lane id=":1_18_0" index="0" speed="9.26" length="19.35" shape="89.60,98.40 94.85,99.15 98.60,101.40 100.85,105.15 101.60,110.40"/>
    </edge>
    <edge id=":1_19" function="internal">
        <lane id=":1_19_0" index="0" speed="3.65" length="4.67" shape="89.60,98.40 90.80,99.20 91.20,100.00 90.80,100.80 89.60,101.60"/>
    </edge>
    <edge id=":1+_0" function="internal">
        <lane id=":1+_0_0" index="0" speed="3.65" length="4.67" shape="101.60,200.00 100.80,201.20 100.00,201.60 99.20,201.20 98.40,200.00"/>
    </edge>
    <edge id=":1-_0" function="internal">
        <lane id=":1-_0_0" index="0" speed="3.65" length="4.67" shape="98.40,0.00 99.20,-1.20 100.00,-1.60 100.80,-1.20 101.60,0.00"/>
    </edge>
    <edge id=":2_0" function="internal">
        <lane id=":2_0_0" index="0" speed="6.51" length="9.03" shape="195.20,110.40 194.85,107.95 193.80,106.20 192.05,105.15 189.60,104.80"/>
    </edge>
    <edge id=":2_1" function="internal">
        <lane id=":2_1_0" index="0" speed="9.26" length="19.35" shape="198.40,110.40 199.15,105.15 201.40,101.40 205.15,99.15 210.40,98.40"/>
    </edge>
    <edge id=":2_2" function="internal">
        <lane id=":2_2_0" index="0" speed="3.65" length="4.67" shape="198.40,110.40 199.20,109.20 200.00,108.80 200.80,109.20 201.60,110.40"/>
    </edge>
    <edge id=":2_3" function="internal">
        <lane id=":2_3_0" index="0" speed="6.51" length="9.03" shape="210.40,104.80 207.95,105.15 206.20,106.20 205.15,107.95 204.80,110.40"/>
    </edge>
    <edge id=":2_4" function="internal">
        <lane id=":2_4_0" index="0" speed="90.00" length="20.80" shape="210.40,104.80 189.60,104.80"/>
        <lane id=":2_4_1" index="1" speed="90.00" length="20.80" shape="210.40,101.60 189.60,101.60"/>
    </edge>
    <edge id=":2_6" function="internal">
        <lane id=":2_6_0" index="0" speed="3.65" length="2.34" shape="210.40,101.60 209.20,100.80 208.80,100.00"/>
    </edge>
    <edge id=":2_11" function="internal">
        <lane id=":2_11_0" index="0" speed="3.65" length="2.34" shape="208.80,100.00 209.20,99.20 210.40,98.40"/>
    </edge>
    <edge id=":2_7" function="internal">
        <lane id=":2_7_0" index="0" speed="90.00" length="20.80" shape="189.60,95.20 210.40,95.20"/>
        <lane id=":2_7_1" index="1" speed="90.00" length="20.80" shape="189.60,98.40 210.40,98.40"/>
    </edge>
    <edge id=":2_9" function="internal">
        <lane id=":2_9_0" index="0" speed="9.26" length="6.96" shape="189.60,98.40 194.85,99.15 196.27,100.00"/>
    </edge>
    <edge id=":2_10" function="internal">
        <lane id=":2_10_0" index="0" speed="3.65" length="2.34" shape="189.60,98.40 190.80,99.20 191.20,100.00"/>
    </edge>
    <edge id=":2_12" function="internal">
        <lane id=":2_12_0" index="0" speed="9.26" length="12.40" shape="196.27,100.00 198.60,101.40 200.85,105.15 201.60,110.40"/>
    </edge>
    <edge id=":2_13" function="internal">
        <lane id=":2_13_0" index="0" speed="3.65" length="2.34" shape="191.20,100.00 190.80,100.80 189.60,101.60"/>
    </edge>
    <edge id=":2+_0" function="internal">
        <lane id=":2+_0_0" index="0" speed="3.65" length="4.67" shape="201.60,200.00 200.80,201.20 200.00,201.60 199.20,201.20 198.40,200.00"/>
    </edge>
    <edge id=":3_0" function="internal">
        <lane id=":3_0_0" index="0" speed="90.00" length="20.80" shape="310.40,104.80 289.60,104.80"/>
        <lane id=":3_0_1" index="1" speed="90.00" length="20.80" shape="310.40,101.60 289.60,101.60"/>
    </edge>
    <edge id=":3_2" function="internal">
        <lane id=":3_2_0" index="0" speed="9.26" length="6.96" shape="310.40,101.60 305.15,100.85 303.73,100.00"/>
    </edge>
    <edge id=":3_3" function="internal">
        <lane id=":3_3_0" index="0" speed="3.65" length="2.34" shape="310.40,101.60 309.20,100.80 308.80,100.00"/>
    </edge>
    <edge id=":3_11" function="internal">
        <lane id=":3_11_0" index="0" speed="9.26" length="12.40" shape="303.73,100.00 301.40,98.60 299.15,94.85 298.40,89.60"/>
    </edge>
    <edge id=":3_12" function="internal">
        <lane id=":3_12_0" index="0" speed="3.65" length="2.34" shape="308.80,100.00 309.20,99.20 310.40,98.40"/>
    </edge>
    <edge id=":3_4" function="internal">
        <lane id=":3_4_0" index="0" speed="6.51" length="9.03" shape="304.80,89.60 305.15,92.05 306.20,93.80 307.95,94.85 310.40,95.20"/>
    </edge>
    <edge id=":3_5" function="internal">
        <lane id=":3_5_0" index="0" speed="9.26" length="19.35" shape="301.60,89.60 300.85,94.85 298.60,98.60 294.85,100.85 289.60,101.60"/>
    </edge>
    <edge id=":3_6" function="internal">
        <lane id=":3_6_0" index="0" speed="3.65" length="4.67" shape="301.60,89.60 300.80,90.80 300.00,91.20 299.20,90.80 298.40,89.60"/>
    </edge>
    <edge id=":3_7" function="internal">
        <lane id=":3_7_0" index="0" speed="6.51" length="9.03" shape="289.60,95.20 292.05,94.85 293.80,93.80 294.85,92.05 295.20,89.60"/>
    </edge>
    <edge id=":3_8" function="internal">
        <lane id=":3_8_0" index="0" speed="90.00" length="20.80" shape="289.60,95.20 310.40,95.20"/>
        <lane id=":3_8_1" index="1" speed="90.00" length="20.80" shape="289.60,98.40 310.40,98.40"/>
    </edge>
    <edge id=":3_10" function="internal">
        <lane id=":3_10_0" index="0" speed="3.65" length="2.34" shape="289.60,98.40 290.80,99.20 291.20,100.00"/>
    </edge>
    <edge id=":3_13" function="internal">
        <lane id=":3_13_0" index="0" speed="3.65" length="2.34" shape="291.20,100.00 290.80,100.80 289.60,101.60"/>
    </edge>
    <edge id=":3-_0" function="internal">
        <lane id=":3-_0_0" index="0" speed="3.65" length="4.67" shape="298.40,0.00 299.20,-1.20 300.00,-1.60 300.80,-1.20 301.60,0.00"/>
    </edge>
    <edge id=":4_0" function="internal">
        <lane id=":4_0_0" index="0" speed="3.65" length="4.67" shape="400.00,98.40 401.20,99.20 401.60,100.00 401.20,100.80 400.00,101.60"/>
    </edge>

    <edge id="0to1" from="0" to="1" priority="1">
        <lane id="0to1_0" index="0" speed="90.00" length="89.60" shape="0.00,95.20 89.60,95.20"/>
        <lane id="0to1_1" index="1" speed="90.00" length="89.60" shape="0.00,98.40 89.60,98.40"/>
    </edge>
    <edge id="1+to1" from="1+" to="1" priority="1">
        <lane id="1+to1_0" index="0" speed="90.00" length="89.60" shape="95.20,200.00 95.20,110.40"/>
        <lane id="1+to1_1" index="1" speed="90.00" length="89.60" shape="98.40,200.00 98.40,110.40"/>
    </edge>
    <edge id="1-to1" from="1-" to="1" priority="1">
        <lane id="1-to1_0" index="0" speed="90.00" length="89.60" shape="104.80,0.00 104.80,89.60"/>
        <lane id="1-to1_1" index="1" speed="90.00" length="89.60" shape="101.60,0.00 101.60,89.60"/>
    </edge>
    <edge id="1to0" from="1" to="0" priority="1">
        <lane id="1to0_0" index="0" speed="90.00" length="89.60" shape="89.60,104.80 0.00,104.80"/>
        <lane id="1to0_1" index="1" speed="90.00" length="89.60" shape="89.60,101.60 0.00,101.60"/>
    </edge>
    <edge id="1to1+" from="1" to="1+" priority="1">
        <lane id="1to1+_0" index="0" speed="90.00" length="89.60" shape="104.80,110.40 104.80,200.00"/>
        <lane id="1to1+_1" index="1" speed="90.00" length="89.60" shape="101.60,110.40 101.60,200.00"/>
    </edge>
    <edge id="1to1-" from="1" to="1-" priority="1">
        <lane id="1to1-_0" index="0" speed="90.00" length="89.60" shape="95.20,89.60 95.20,0.00"/>
        <lane id="1to1-_1" index="1" speed="90.00" length="89.60" shape="98.40,89.60 98.40,0.00"/>
    </edge>
    <edge id="1to2" from="1" to="2" priority="1">
        <lane id="1to2_0" index="0" speed="90.00" length="79.20" shape="110.40,95.20 189.60,95.20"/>
        <lane id="1to2_1" index="1" speed="90.00" length="79.20" shape="110.40,98.40 189.60,98.40"/>
    </edge>
    <edge id="2+to2" from="2+" to="2" priority="1">
        <lane id="2+to2_0" index="0" speed="90.00" length="89.60" shape="195.20,200.00 195.20,110.40"/>
        <lane id="2+to2_1" index="1" speed="90.00" length="89.60" shape="198.40,200.00 198.40,110.40"/>
    </edge>
    <edge id="2to1" from="2" to="1" priority="1">
        <lane id="2to1_0" index="0" speed="90.00" length="79.20" shape="189.60,104.80 110.40,104.80"/>
        <lane id="2to1_1" index="1" speed="90.00" length="79.20" shape="189.60,101.60 110.40,101.60"/>
    </edge>
    <edge id="2to2+" from="2" to="2+" priority="1">
        <lane id="2to2+_0" index="0" speed="90.00" length="89.60" shape="204.80,110.40 204.80,200.00"/>
        <lane id="2to2+_1" index="1" speed="90.00" length="89.60" shape="201.60,110.40 201.60,200.00"/>
    </edge>
    <edge id="2to3" from="2" to="3" priority="1">
        <lane id="2to3_0" index="0" speed="90.00" length="79.20" shape="210.40,95.20 289.60,95.20"/>
        <lane id="2to3_1" index="1" speed="90.00" length="79.20" shape="210.40,98.40 289.60,98.40"/>
    </edge>
    <edge id="3-to3" from="3-" to="3" priority="1">
        <lane id="3-to3_0" index="0" speed="90.00" length="89.60" shape="304.80,0.00 304.80,89.60"/>
        <lane id="3-to3_1" index="1" speed="90.00" length="89.60" shape="301.60,0.00 301.60,89.60"/>
    </edge>
    <edge id="3to2" from="3" to="2" priority="1">
        <lane id="3to2_0" index="0" speed="90.00" length="79.20" shape="289.60,104.80 210.40,104.80"/>
        <lane id="3to2_1" index="1" speed="90.00" length="79.20" shape="289.60,101.60 210.40,101.60"/>
    </edge>
    <edge id="3to3-" from="3" to="3-" priority="1">
        <lane id="3to3-_0" index="0" speed="90.00" length="89.60" shape="295.20,89.60 295.20,0.00"/>
        <lane id="3to3-_1" index="1" speed="90.00" length="89.60" shape="298.40,89.60 298.40,0.00"/>
    </edge>
    <edge id="3to4" from="3" to="4" priority="1">
        <lane id="3to4_0" index="0" speed="90.00" length="89.60" shape="310.40,95.20 400.00,95.20"/>
        <lane id="3to4_1" index="1" speed="90.00" length="89.60" shape="310.40,98.40 400.00,98.40"/>
    </edge>
    <edge id="4to3" from="4" to="3" priority="1">
        <lane id="4to3_0" index="0" speed="90.00" length="89.60" shape="400.00,104.80 310.40,104.80"/>
        <lane id="4to3_1" index="1" speed="90.00" length="89.60" shape="400.00,101.60 310.40,101.60"/>
    </edge>

    <junction id="0" type="priority" x="0.00" y="100.00" incLanes="1to0_0 1to0_1" intLanes=":0_0_0" shape="0.00,100.00 0.00,106.40 0.00,100.00">
        <request index="0" response="0" foes="0" cont="0"/>
    </junction>
    <junction id="1" type="priority" x="100.00" y="100.00" incLanes="1+to1_0 1+to1_1 2to1_0 2to1_1 1-to1_0 1-to1_1 0to1_0 0to1_1" intLanes=":1_0_0 :1_1_0 :1_1_1 :1_20_0 :1_21_0 :1_5_0 :1_6_0 :1_6_1 :1_8_0 :1_9_0 :1_10_0 :1_11_0 :1_11_1 :1_22_0 :1_23_0 :1_15_0 :1_16_0 :1_16_1 :1_18_0 :1_19_0" shape="93.60,110.40 106.40,110.40 106.84,108.18 107.40,107.40 108.18,106.84 109.18,106.51 110.40,106.40 110.40,93.60 108.18,93.16 107.40,92.60 106.84,91.82 106.51,90.82 106.40,89.60 93.60,89.60 93.16,91.82 92.60,92.60 91.82,93.16 90.82,93.49 89.60,93.60 89.60,106.40 91.82,106.84 92.60,107.40 93.16,108.18 93.49,109.18">
        <request index="0"  response="00000000000000000000" foes="00000000000011000000" cont="0"/>
        <request index="1"  response="00000000000000000000" foes="01111110000111000000" cont="0"/>
        <request index="2"  response="00000000000000000000" foes="01111110000111000000" cont="0"/>
        <request index="3"  response="00000001100000000000" foes="01110001101111000000" cont="1"/>
        <request index="4"  response="01000001100000000000" foes="01000001100000000000" cont="1"/>
        <request index="5"  response="00000001100000000000" foes="00000001100000000000" cont="0"/>
        <request index="6"  response="00000011100000001111" foes="11000011100000001111" cont="0"/>
        <request index="7"  response="00000011100000001111" foes="11000011100000001111" cont="0"/>
        <request index="8"  response="00110011100000001110" foes="00110111100000001110" cont="0"/>
        <request index="9"  response="00110000000000001000" foes="00110000000000001000" cont="0"/>
        <request index="10" response="00000000000000000000" foes="00110000000000000000" cont="0"/>
        <request index="11" response="00000000000000000000" foes="01110000000111111000" cont="0"/>
        <request index="12" response="00000000000000000000" foes="01110000000111111000" cont="0"/>
        <request index="13" response="00000000000000000110" foes="11110000000111000110" cont="1"/>
        <request index="14" response="00000000000100000110" foes="00000000000100000110" cont="1"/>
        <request index="15" response="00000000000000000110" foes="00000000000000000110" cont="0"/>
        <request index="16" response="00000011110000001110" foes="00000011111100001110" cont="0"/>
        <request index="17" response="00000011110000001110" foes="00000011111100001110" cont="0"/>
        <request index="18" response="00000011100011001110" foes="00000011100011011110" cont="0"/>
        <request index="19" response="00000010000011000000" foes="00000010000011000000" cont="0"/>
    </junction>
    <junction id="1+" type="priority" x="100.00" y="200.00" incLanes="1to1+_0 1to1+_1" intLanes=":1+_0_0" shape="100.00,200.00 106.40,200.00 100.00,200.00">
        <request index="0" response="0" foes="0" cont="0"/>
    </junction>
    <junction id="1-" type="priority" x="100.00" y="0.00" incLanes="1to1-_0 1to1-_1" intLanes=":1-_0_0" shape="100.00,0.00 93.60,0.00 100.00,0.00">
        <request index="0" response="0" foes="0" cont="0"/>
    </junction>
    <junction id="2" type="priority" x="200.00" y="100.00" incLanes="2+to2_0 2+to2_1 3to2_0 3to2_1 1to2_0 1to2_1" intLanes=":2_0_0 :2_1_0 :2_2_0 :2_3_0 :2_4_0 :2_4_1 :2_11_0 :2_7_0 :2_7_1 :2_12_0 :2_13_0" shape="193.60,110.40 206.40,110.40 206.84,108.18 207.40,107.40 208.18,106.84 209.18,106.51 210.40,106.40 210.40,93.60 189.60,93.60 189.60,106.40 191.82,106.84 192.60,107.40 193.16,108.18 193.49,109.18">
        <request index="0"  response="00000110000" foes="00000110000" cont="0"/>
        <request index="1"  response="01110110000" foes="01111110000" cont="0"/>
        <request index="2"  response="01000000000" foes="01000000000" cont="0"/>
        <request index="3"  response="00000000000" foes="00000000000" cont="0"/>
        <request index="4"  response="00000000000" foes="11000000011" cont="0"/>
        <request index="5"  response="00000000000" foes="11000000011" cont="0"/>
        <request index="6"  response="00110000010" foes="00110000010" cont="1"/>
        <request index="7"  response="00000000000" foes="00001000010" cont="0"/>
        <request index="8"  response="00000000000" foes="00001000010" cont="0"/>
        <request index="9"  response="00000110000" foes="00000110110" cont="1"/>
        <request index="10" response="00000110000" foes="00000110000" cont="1"/>
    </junction>
    <junction id="2+" type="priority" x="200.00" y="200.00" incLanes="2to2+_0 2to2+_1" intLanes=":2+_0_0" shape="200.00,200.00 206.40,200.00 200.00,200.00">
        <request index="0" response="0" foes="0" cont="0"/>
    </junction>
    <junction id="3" type="priority" x="300.00" y="100.00" incLanes="4to3_0 4to3_1 3-to3_0 3-to3_1 2to3_0 2to3_1" intLanes=":3_0_0 :3_0_1 :3_11_0 :3_12_0 :3_4_0 :3_5_0 :3_6_0 :3_7_0 :3_8_0 :3_8_1 :3_13_0" shape="310.40,106.40 310.40,93.60 308.18,93.16 307.40,92.60 306.84,91.82 306.51,90.82 306.40,89.60 293.60,89.60 293.16,91.82 292.60,92.60 291.82,93.16 290.82,93.49 289.60,93.60 289.60,106.40">
        <request index="0"  response="00000000000" foes="10000100000" cont="0"/>
        <request index="1"  response="00000000000" foes="10000100000" cont="0"/>
        <request index="2"  response="01100000000" foes="01101100000" cont="1"/>
        <request index="3"  response="01100000000" foes="01100000000" cont="1"/>
        <request index="4"  response="01100000000" foes="01100000000" cont="0"/>
        <request index="5"  response="01100000111" foes="11100000111" cont="0"/>
        <request index="6"  response="00000000100" foes="00000000100" cont="0"/>
        <request index="7"  response="00000000000" foes="00000000000" cont="0"/>
        <request index="8"  response="00000000000" foes="00000111100" cont="0"/>
        <request index="9"  response="00000000000" foes="00000111100" cont="0"/>
        <request index="10" response="00000100011" foes="00000100011" cont="1"/>
    </junction>
    <junction id="3-" type="priority" x="300.00" y="0.00" incLanes="3to3-_0 3to3-_1" intLanes=":3-_0_0" shape="300.00,0.00 293.60,0.00 300.00,0.00">
        <request index="0" response="0" foes="0" cont="0"/>
    </junction>
    <junction id="4" type="priority" x="400.00" y="100.00" incLanes="3to4_0 3to4_1" intLanes=":4_0_0" shape="400.00,100.00 400.00,93.60 400.00,100.00">
        <request index="0" response="0" foes="0" cont="0"/>
    </junction>

    <junction id=":1_20_0" type="internal" x="100.00" y="103.73" incLanes=":1_3_0 1-to1_0 1-to1_1" intLanes=":1_6_0 :1_6_1 :1_8_0 :1_9_0 :1_10_0 :1_11_0 :1_11_1 :1_16_0 :1_16_1 :1_18_0"/>
    <junction id=":1_21_0" type="internal" x="100.00" y="108.80" incLanes=":1_4_0 0to1_1 1-to1_0 1-to1_1 2to1_0" intLanes=":1_5_0 :1_11_0 :1_11_1 :1_18_0"/>
    <junction id=":1_22_0" type="internal" x="100.00" y="96.27" incLanes=":1_13_0 1+to1_0 1+to1_1" intLanes=":1_0_0 :1_1_0 :1_1_1 :1_6_0 :1_6_1 :1_8_0 :1_16_0 :1_16_1 :1_18_0 :1_19_0"/>
    <junction id=":1_23_0" type="internal" x="100.00" y="91.20" incLanes=":1_14_0 0to1_0 1+to1_0 1+to1_1 2to1_1" intLanes=":1_1_0 :1_1_1 :1_8_0 :1_15_0"/>
    <junction id=":2_11_0" type="internal" x="208.80" y="100.00" incLanes=":2_6_0 1to2_0 1to2_1 2+to2_1" intLanes=":2_1_0 :2_7_0 :2_7_1"/>
    <junction id=":2_12_0" type="internal" x="196.27" y="100.00" incLanes=":2_9_0 3to2_0 3to2_1" intLanes=":2_1_0 :2_2_0 :2_3_0 :2_4_0 :2_4_1"/>
    <junction id=":2_13_0" type="internal" x="191.20" y="100.00" incLanes=":2_10_0 2+to2_0 3to2_0 3to2_1" intLanes=":2_0_0 :2_4_0 :2_4_1"/>
    <junction id=":3_11_0" type="internal" x="303.73" y="100.00" incLanes=":3_2_0 2to3_0 2to3_1" intLanes=":3_5_0 :3_6_0 :3_7_0 :3_8_0 :3_8_1"/>
    <junction id=":3_12_0" type="internal" x="308.80" y="100.00" incLanes=":3_3_0 2to3_0 2to3_1 3-to3_0" intLanes=":3_4_0 :3_8_0 :3_8_1"/>
    <junction id=":3_13_0" type="internal" x="291.20" y="100.00" incLanes=":3_10_0 3-to3_1 4to3_0 4to3_1" intLanes=":3_0_0 :3_0_1 :3_5_0"/>

    <connection from="0to1" to="1to1-" fromLane="0" toLane="0" via=":1_15_0" dir="r" state="m"/>
    <connection from="0to1" to="1to2" fromLane="0" toLane="0" via=":1_16_0" dir="s" state="m"/>
    <connection from="0to1" to="1to2" fromLane="1" toLane="1" via=":1_16_1" dir="s" state="m"/>
    <connection from="0to1" to="1to1+" fromLane="1" toLane="1" via=":1_18_0" dir="l" state="m"/>
    <connection from="0to1" to="1to0" fromLane="1" toLane="1" via=":1_19_0" dir="t" state="m"/>
    <connection from="1+to1" to="1to0" fromLane="0" toLane="0" via=":1_0_0" dir="r" state="M"/>
    <connection from="1+to1" to="1to1-" fromLane="0" toLane="0" via=":1_1_0" dir="s" state="M"/>
    <connection from="1+to1" to="1to1-" fromLane="1" toLane="1" via=":1_1_1" dir="s" state="M"/>
    <connection from="1+to1" to="1to2" fromLane="1" toLane="1" via=":1_3_0" dir="l" state="m"/>
    <connection from="1+to1" to="1to1+" fromLane="1" toLane="1" via=":1_4_0" dir="t" state="m"/>
    <connection from="1-to1" to="1to2" fromLane="0" toLane="0" via=":1_10_0" dir="r" state="M"/>
    <connection from="1-to1" to="1to1+" fromLane="0" toLane="0" via=":1_11_0" dir="s" state="M"/>
    <connection from="1-to1" to="1to1+" fromLane="1" toLane="1" via=":1_11_1" dir="s" state="M"/>
    <connection from="1-to1" to="1to0" fromLane="1" toLane="1" via=":1_13_0" dir="l" state="m"/>
    <connection from="1-to1" to="1to1-" fromLane="1" toLane="1" via=":1_14_0" dir="t" state="m"/>
    <connection from="1to0" to="0to1" fromLane="1" toLane="1" via=":0_0_0" dir="t" state="M"/>
    <connection from="1to1+" to="1+to1" fromLane="1" toLane="1" via=":1+_0_0" dir="t" state="M"/>
    <connection from="1to1-" to="1-to1" fromLane="1" toLane="1" via=":1-_0_0" dir="t" state="M"/>
    <connection from="1to2" to="2to3" fromLane="0" toLane="0" via=":2_7_0" dir="s" state="M"/>
    <connection from="1to2" to="2to3" fromLane="1" toLane="1" via=":2_7_1" dir="s" state="M"/>
    <connection from="1to2" to="2to2+" fromLane="1" toLane="1" via=":2_9_0" dir="l" state="m"/>
    <connection from="1to2" to="2to1" fromLane="1" toLane="1" via=":2_10_0" dir="t" state="m"/>
    <connection from="2+to2" to="2to1" fromLane="0" toLane="0" via=":2_0_0" dir="r" state="m"/>
    <connection from="2+to2" to="2to3" fromLane="1" toLane="1" via=":2_1_0" dir="l" state="m"/>
    <connection from="2+to2" to="2to2+" fromLane="1" toLane="1" via=":2_2_0" dir="t" state="m"/>
    <connection from="2to1" to="1to1+" fromLane="0" toLane="0" via=":1_5_0" dir="r" state="m"/>
    <connection from="2to1" to="1to0" fromLane="0" toLane="0" via=":1_6_0" dir="s" state="m"/>
    <connection from="2to1" to="1to0" fromLane="1" toLane="1" via=":1_6_1" dir="s" state="m"/>
    <connection from="2to1" to="1to1-" fromLane="1" toLane="1" via=":1_8_0" dir="l" state="m"/>
    <connection from="2to1" to="1to2" fromLane="1" toLane="1" via=":1_9_0" dir="t" state="m"/>
    <connection from="2to2+" to="2+to2" fromLane="1" toLane="1" via=":2+_0_0" dir="t" state="M"/>
    <connection from="2to3" to="3to3-" fromLane="0" toLane="0" via=":3_7_0" dir="r" state="M"/>
    <connection from="2to3" to="3to4" fromLane="0" toLane="0" via=":3_8_0" dir="s" state="M"/>
    <connection from="2to3" to="3to4" fromLane="1" toLane="1" via=":3_8_1" dir="s" state="M"/>
    <connection from="2to3" to="3to2" fromLane="1" toLane="1" via=":3_10_0" dir="t" state="m"/>
    <connection from="3-to3" to="3to4" fromLane="0" toLane="0" via=":3_4_0" dir="r" state="m"/>
    <connection from="3-to3" to="3to2" fromLane="1" toLane="1" via=":3_5_0" dir="l" state="m"/>
    <connection from="3-to3" to="3to3-" fromLane="1" toLane="1" via=":3_6_0" dir="t" state="m"/>
    <connection from="3to2" to="2to2+" fromLane="0" toLane="0" via=":2_3_0" dir="r" state="M"/>
    <connection from="3to2" to="2to1" fromLane="0" toLane="0" via=":2_4_0" dir="s" state="M"/>
    <connection from="3to2" to="2to1" fromLane="1" toLane="1" via=":2_4_1" dir="s" state="M"/>
    <connection from="3to2" to="2to3" fromLane="1" toLane="1" via=":2_6_0" dir="t" state="m"/>
    <connection from="3to3-" to="3-to3" fromLane="1" toLane="1" via=":3-_0_0" dir="t" state="M"/>
    <connection from="3to4" to="4to3" fromLane="1" toLane="1" via=":4_0_0" dir="t" state="M"/>
    <connection from="4to3" to="3to2" fromLane="0" toLane="0" via=":3_0_0" dir="s" state="M"/>
    <connection from="4to3" to="3to2" fromLane="1" toLane="1" via=":3_0_1" dir="s" state="M"/>
    <connection from="4to3" to="3to3-" fromLane="1" toLane="1" via=":3_2_0" dir="l" state="m"/>
    <connection from="4to3" to="3to4" fromLane="1" toLane="1" via=":3_3_0" dir="t" state="m"/>

    <connection from=":0_0" to="0to1" fromLane="0" toLane="1" dir="t" state="M"/>
    <connection from=":1_0" to="1to0" fromLane="0" toLane="0" dir="r" state="M"/>
    <connection from=":1_1" to="1to1-" fromLane="0" toLane="0" dir="s" state="M"/>
    <connection from=":1_1" to="1to1-" fromLane="1" toLane="1" dir="s" state="M"/>
    <connection from=":1_3" to="1to2" fromLane="0" toLane="1" via=":1_20_0" dir="l" state="m"/>
    <connection from=":1_20" to="1to2" fromLane="0" toLane="1" dir="l" state="M"/>
    <connection from=":1_4" to="1to1+" fromLane="0" toLane="1" via=":1_21_0" dir="t" state="m"/>
    <connection from=":1_21" to="1to1+" fromLane="0" toLane="1" dir="t" state="M"/>
    <connection from=":1_5" to="1to1+" fromLane="0" toLane="0" dir="r" state="M"/>
    <connection from=":1_6" to="1to0" fromLane="0" toLane="0" dir="s" state="M"/>
    <connection from=":1_6" to="1to0" fromLane="1" toLane="1" dir="s" state="M"/>
    <connection from=":1_8" to="1to1-" fromLane="0" toLane="1" dir="l" state="M"/>
    <connection from=":1_9" to="1to2" fromLane="0" toLane="1" dir="t" state="M"/>
    <connection from=":1_10" to="1to2" fromLane="0" toLane="0" dir="r" state="M"/>
    <connection from=":1_11" to="1to1+" fromLane="0" toLane="0" dir="s" state="M"/>
    <connection from=":1_11" to="1to1+" fromLane="1" toLane="1" dir="s" state="M"/>
    <connection from=":1_13" to="1to0" fromLane="0" toLane="1" via=":1_22_0" dir="l" state="m"/>
    <connection from=":1_22" to="1to0" fromLane="0" toLane="1" dir="l" state="M"/>
    <connection from=":1_14" to="1to1-" fromLane="0" toLane="1" via=":1_23_0" dir="t" state="m"/>
    <connection from=":1_23" to="1to1-" fromLane="0" toLane="1" dir="t" state="M"/>
    <connection from=":1_15" to="1to1-" fromLane="0" toLane="0" dir="r" state="M"/>
    <connection from=":1_16" to="1to2" fromLane="0" toLane="0" dir="s" state="M"/>
    <connection from=":1_16" to="1to2" fromLane="1" toLane="1" dir="s" state="M"/>
    <connection from=":1_18" to="1to1+" fromLane="0" toLane="1" dir="l" state="M"/>
    <connection from=":1_19" to="1to0" fromLane="0" toLane="1" dir="t" state="M"/>
    <connection from=":1+_0" to="1+to1" fromLane="0" toLane="1" dir="t" state="M"/>
    <connection from=":1-_0" to="1-to1" fromLane="0" toLane="1" dir="t" state="M"/>
    <connection from=":2_0" to="2to1" fromLane="0" toLane="0" dir="r" state="M"/>