<routes>
        <vType id="default_type" accel="0.8" decel="4.5" sigma="0.5" length="5" minGap="2.5" maxSpeed="16.67" guiShape="passenger"/>

        <route id="route0" edges="0to1 1to2 2to3 3to4" />
        <route id="route1" edges="1-to1 1to1+" />
        <route id="route2" edges="1+to1 1to1-" />
        <route id="route3" edges="0to1 1to2 2to3 3to3-" />
        <route id="route4" edges="0to1 1to2 2to2+" />
        <route id="route5" edges="0to1 1to1+" />
        
    <vehicle id="route1_0" type="default_type" route="route1" depart="0" />
    <vehicle id="route3_1" type="default_type" route="route3" depart="1" />
    <vehicle id="route0_2" type="default_type" route="route0" depart="2" />
    <vehicle id="route1_3" type="default_type" route="route1" depart="3" />
    <vehicle id="route5_4" type="default_type" route="route5" depart="6" />
    <vehicle id="route1_5" type="default_type" route="route1" depart="11" />
    <vehicle id="route5_6" type="default_type" route="route5" depart="14" />
    <vehicle id="route4_7" type="default_type" route="route4" depart="16" />
    <vehicle id="route4_8" type="default_type" route="route4" depart="20" />
    <vehicle id="route0_9" type="default_type" route="route0" depart="21" />
    <vehicle id="route5_10" type="default_type" route="route5" depart="44" />
    <vehicle id="route2_11" type="default_type" route="route2" depart="48" />
    <vehicle id="route3_12" type="default_type" route="route3" depart="49" />
    <vehicle id="route0_13" type="default_type" route="route0" depart="54" />
    <vehicle id="route0_14" type="default_type" route="route0" depart="57" />
    <vehicle id="route2_15" type="default_type" route="route2" depart="61" />
    <vehicle id="route4_16" type="default_type" route="route4" depart="65" />
    <vehicle id="route1_17" type="default_type" route="route1" depart="69" />
    <vehicle id="route1_18" type="default_type" route="route1" depart="71" />
    <vehicle id="route1_19" type="default_type" route="route1" depart="80" />
    <vehicle id="route1_20" type="default_type" route="route1" depart="82" />
    <vehicle id="route3_21" type="default_type" route="route3" depart="83" />
    <vehicle id="route0_22" type="default_type" route="route0" depart="84" />
    <vehicle id="route2_23" type="default_type" route="route2" depart="86" />
    <vehicle id="route0_24" type="default_type" route="route0" depart="88" />
    <vehicle id="route3_25" type="default_type" route="route3" depart="90" />
    <vehicle id="route1_26" type="default_type" route="route1" depart="98" />
    <vehicle id="route4_27" type="default_type" route="route4" depart="99" />
    <vehicle id="route1_28" type="default_type" route="route1" depart="106" />
    <vehicle id="route0_29" type="default_type" route="route0" depart="114" />
    <vehicle id="route2_30" type="default_type" route="route2" depart="119" />
    <vehicle id="route2_31" type="default_type" route="route2" depart="121" />
    <vehicle id="route1_32" type="default_type" route="route1" depart="136" />
    <vehicle id="route4_33" type="default_type" route="route4" depart="137" />
    <vehicle id="route5_34" type="default_type" route="route5" depart="141" />
    <vehicle id="route0_35" type="default_type" route="route0" depart="144" />
    <vehicle id="route0_36" type="default_type" route="route0" depart="147" />
    <vehicle id="route2_37" type="default_type" route="route2" depart="151" />
    <vehicle id="route2_38" type="default_type" route="route2" depart="159" />
    <vehicle id="route0_39" type="default_type" route="route0" depart="161" />
    <vehicle id="route5_40" type="default_type" route="route5" depart="165" />
    <vehicle id="route5_41" type="default_type" route="route5" depart="168" />
    <vehicle id="route0_42" type="default_type" route="route0" depart="171" />
    <vehicle id="route1_43" type="default_type" route="route1" depart="172" />
    <vehicle id="route2_44" type="default_type" route="route2" depart="172" />
    <vehicle id="route5_45" type="default_type" route="route5" depart="174" />
    <vehicle id="route3_46" type="default_type" route="route3" depart="187" />
    <vehicle id="route5_47" type="default_type" route="route5" depart="188" />
    <vehicle id="route5_48" type="default_type" route="route5" depart="189" />
    <vehicle id="route1_49" type="default_type" route="route1" depart="194" />
    <vehicle id="route4_50" type="default_type" route="route4" depart="194" />
    <vehicle id="route4_51" type="default_type" route="route4" depart="195" />
    <vehicle id="route2_52" type="default_type" route="route2" depart="197" />
    <vehicle id="route3_53" type="default_type" route="route3" depart="197" />
    <vehicle id="route5_54" type="default_type" route="route5" depart="198" />
    <vehicle id="route2_55" type="default_type" route="route2" depart="220" />
    <vehicle id="route5_56" type="default_type" route="route5" depart="228" />
    <vehicle id="route5_57" type="default_type" route="route5" depart="229" />
    <vehicle id="route5_58" type="default_type" route="route5" depart="231" />
    <vehicle id="route3_59" type="default_type" route="route3" depart="233" />
    <vehicle id="route4_60" type="default_type" route="route4" depart="234" />
    <vehicle id="route1_61" type="default_type" route="route1" depart="238" />
    <vehicle id="route3_62" type="default_type" route="route3" depart="239" />
    <vehicle id="route4_63" type="default_type" route="route4" depart="241" />
    <vehicle id="route0_64" type="default_type" route="route0" depart="242" />
    <vehicle id="route1_65" type="default_type" route="route1" depart="248" />
    <vehicle id="route5_66" type="default_type" route="route5" depart="250" />
    <vehicle id="route2_67" type="default_type" route="route2" depart="259" />
    <vehicle id="route0_68" type="default_type" route="route0" depart="268" />
    <vehicle id="route1_69" type="default_type" route="route1" depart="268" />
    <vehicle id="route1_70" type="default_type" route="route1" depart="276" />
    <vehicle id="route3_71" type="default_type" route="route3" depart="282" />
    <vehicle id="route5_72" type="default_type" route="route5" depart="286" />
    <vehicle id="route1_73" type="default_type" route="route1" depart="289" />
    <vehicle id="route4_74" type="default_type" route="route4" depart="289" />
    <vehicle id="route1_75" type="default_type" route="route1" depart="301" />
    <vehicle id="route0_76" type="default_type" route="route0" depart="306" />
    <vehicle id="route2_77" type="default_type" route="route2" depart="312" />
    <vehicle id="route0_78" type="default_type" route="route0" depart="322" />
    <vehicle id="route1_79" type="default_type" route="route1" depart="323" />
    <vehicle id="route5_80" type="default_type" route="route5" depart="326" />
    <vehicle id="route0_81" type="default_type" route="route0" depart="327" />
    <vehicle id="route4_82" type="default_type" route="route4" depart="329" />
    <vehicle id="route1_83" type="default_type" route="route1" depart="330" />
    <vehicle id="route4_84" type="default_type" route="route4" depart="330" />
    <vehicle id="route4_85" type="default_type" route="route4" depart="341" />
    <vehicle id="route3_86" type="default_type" route="route3" depart="350" />
    <vehicle id="route0_87" type="default_type" route="route0" depart="352" />
    <vehicle id="route2_88" type="default_type" route="route2" depart="353" />
    <vehicle id="route4_89" type="default_type" route="route4" depart="353" />
    <vehicle id="route2_90" type="default_type" route="route2" depart="354" />
    <vehicle id="route5_91" type="default_type" route="route5" depart="358" />
    <vehicle id="route2_92" type="default_type" route="route2" depart="360" />
    <vehicle id="route1_93" type="default_type" route="route1" depart="361" />
    <vehicle id="route0_94" type="default_type" route="route0" depart="362" />
    <vehicle id="route5_95" type="default_type" route="route5" depart="366" />
    <vehicle id="route1_96" type="default_type" route="route1" depart="370" />
    <vehicle id="route4_97" type="default_type" route="route4" depart="371" />
    <vehicle id="route1_98" type="default_type" route="route1" depart="387" />
    <vehicle id="route2_99" type="default_type" route="route2" depart="388" />
    <vehicle id="route2_100" type="default_type" route="route2" depart="390" />
    <vehicle id="route5_101" type="default_type" route="route5" depart="395" />
    <vehicle id="route2_102" type="default_type" route="route2" depart="404" />
    <vehicle id="route1_103" type="default_type" route="route1" depart="406" />
    <vehicle id="route5_104" type="default_type" route="route5" depart="408" />
    <vehicle id="route2_105" type="default_type" route="route2" depart="419" />
    <vehicle id="route4_106" type="default_type" route="route4" depart="422" />
    <vehicle id="route5_107" type="default_type" route="route5" depart="423" />
    <vehicle id="route1_108" type="default_type" route="route1" depart="427" />
    <vehicle id="route0_109" type="default_type" route="route0" depart="428" />
    <vehicle id="route1_110" type="default_type" route="route1" depart="431" />
    <vehicle id="route3_111" type="default_type" route="route3" depart="439" />
    <vehicle id="route0_112" type="default_type" route="route0" depart="440" />
    <vehicle id="route5_113" type="default_type" route="route5" depart="447" />
    <vehicle id="route5_114" type="default_type" route="route5" depart="450" />
    <vehicle id="route5_115" type="default_type" route="route5" depart="455" />
    <vehicle id="route0_116" type="default_type" route="route0" depart="458" />
    <vehicle id="route1_117" type="default_type" route="route1" depart="459" />
    <vehicle id="route5_118" type="default_type" route="route5" depart="467" />
    <vehicle id="route3_119" type="default_type" route="route3" depart="469" />
    <vehicle id="route5_120" type="default_type" route="route5" depart="470" />
    <vehicle id="route4_121" type="default_type" route="route4" depart="472" />
    <vehicle id="route0_122" type="default_type" route="route0" depart="474" />
    <vehicle id="route0_123" type="default_type" route="route0" depart="475" />
    <vehicle id="route1_124" type="default_type" route="route1" depart="476" />
    <vehicle id="route5_125" type="default_type" route="route5" depart="484" />
    <vehicle id="route2_126" type="default_type" route="route2" depart="487" />
    <vehicle id="route4_127" type="default_type" route="route4" depart="488" />
    <vehicle id="route3_128" type="default_type" route="route3" depart="494" />
    <vehicle id="route2_129" type="default_type" route="route2" depart="498" />
    <vehicle id="route1_130" type="default_type" route="route1" depart="503" />
    <vehicle id="route3_131" type="default_type" route="route3" depart="505" />
    <vehicle id="route1_132" type="default_type" route="route1" depart="507" />
    <vehicle id="route3_133" type="default_type" route="route3" depart="521" />
    <vehicle id="route2_134" type="default_type" route="route2" depart="522" />
    <vehicle id="route3_135" type="default_type" route="route3" depart="523" />
    <vehicle id="route2_136" type="default_type" route="route2" depart="528" />
    <vehicle id="route3_137" type="default_type" route="route3" depart="530" />
    <vehicle id="route0_138" type="default_type" route="route0" depart="534" />
    <vehicle id="route3_139" type="default_type" route="route3" depart="534" />
    <vehicle id="route1_140" type="default_type" route="route1" depart="535" />
    <vehicle id="route4_141" type="default_type" route="route4" depart="542" />
    <vehicle id="route1_142" type="default_type" route="route1" depart="552" />
    <vehicle id="route2_143" type="default_type" route="route2" depart="554" />
    <vehicle id="route5_144" type="default_type" route="route5" depart="554" />
    <vehicle id="route5_145" type="default_type" route="route5" depart="560" />
    <vehicle id="route3_146" type="default_type" route="route3" depart="561" />
    <vehicle id="route1_147" type="default_type" route="route1" depart="562" />
    <vehicle id="route5_148" type="default_type" route="route5" depart="566" />
    <vehicle id="route4_149" type="default_type" route="route4" depart="567" />
    <vehicle id="route3_150" type="default_type" route="route3" depart="570" />
    <vehicle id="route4_151" type="default_type" route="route4" depart="571" />
    <vehicle id="route5_152" type="default_type" route="route5" depart="576" />
    <vehicle id="route1_153" type="default_type" route="route1" depart="578" />
    <vehicle id="route1_154" type="default_type" route="route1" depart="586" />
    <vehicle id="route4_155" type="default_type" route="route4" depart="590" />
    <vehicle id="route5_156" type="default_type" route="route5" depart="594" />
    <vehicle id="route0_157" type="default_type" route="route0" depart="604" />
    <vehicle id="route0_158" type="default_type" route="route0" depart="606" />
    <vehicle id="route1_159" type="default_type" route="route1" depart="609" />
    <vehicle id="route4_160" type="default_type" route="route4" depart="618" />
    <vehicle id="route5_161" type="default_type" route="route5" depart="621" />
    <vehicle id="route1_162" type="default_type" route="route1" depart="623" />
    <vehicle id="route4_163" type="default_type" route="route4" depart="627" />
    <vehicle id="route3_164" type="default_type" route="route3" depart="633" />
    <vehicle id="route4_165" type="default_type" route="route4" depart="640" />
    <vehicle id="route3_166" type="default_type" route="route3" depart="644" />
    <vehicle id="route5_167" type="default_type" route="route5" depart="644" />
    <vehicle id="route0_168" type="default_type" route="route0" depart="651" />
    <vehicle id="route0_169" type="default_type" route="route0" depart="652" />
    <vehicle id="route5_170" type="default_type" route="route5" depart="658" />
    <vehicle id="route0_171" type="default_type" route="route0" depart="659" />
    <vehicle id="route4_172" type="default_type" route="route4" depart="659" />
    <vehicle id="route0_173" type="default_type" route="route0" depart="661" />
    <vehicle id="route1_174" type="default_type" route="route1" depart="666" />
    <vehicle id="route2_175" type="default_type" route="route2" depart="668" />
    <vehicle id="route1_176" type="default_type" route="route1" depart="672" />
    <vehicle id="route3_177" type="default_type" route="route3" depart="678" />
    <vehicle id="route5_178" type="default_type" route="route5" depart="679" />
    <vehicle id="route2_179" type="default_type" route="route2" depart="682" />
    <vehicle id="route1_180" type="default_type" route="route1" depart="683" />
    <vehicle id="route3_181" type="default_type" route="route3" depart="683" />
    <vehicle id="route2_182" type="default_type" route="route2" depart="690" />
    <vehicle id="route0_183" type="default_type" route="route0" depart="692" />
    <vehicle id="route1_184" type="default_type" route="route1" depart="697" />
    <vehicle id="route2_185" type="default_type" route="route2" depart="701" />
    <vehicle id="route0_186" type="default_type" route="route0" depart="710" />
    <vehicle id="route3_187" type="default_type" route="route3" depart="716" />
    <vehicle id="route2_188" type="default_type" route="route2" depart="718" />
    <vehicle id="route4_189" type="default_type" route="route4" depart="720" />
    <vehicle id="route0_190" type="default_type" route="route0" depart="725" />
    <vehicle id="route5_191" type="default_type" route="route5" depart="725" />
    <vehicle id="route3_192" type="default_type" route="route3" depart="726" />
    <vehicle id="route1_193" type="default_type" route="route1" depart="727" />
    <vehicle id="route5_194" type="default_type" route="route5" depart="731" />
    <vehicle id="route0_195" type="default_type" route="route0" depart="732" />
    <vehicle id="route3_196" type="default_type" route="route3" depart="737" />
    <vehicle id="route1_197" type="default_type" route="route1" depart="739" />
    <vehicle id="route5_198" type="default_type" route="route5" depart="741" />
    <vehicle id="route0_199" type="default_type" route="route0" depart="742" />
    <vehicle id="route3_200" type="default_type" route="route3" depart="749" />
    <vehicle id="route1_201" type="default_type" route="route1" depart="750" />
    <vehicle id="route5_202" type="default_type" route="route5" depart="757" />
    <vehicle id="route5_203" type="default_type" route="route5" depart="766" />
    <vehicle id="route1_204" type="default_type" route="route1" depart="768" />
    <vehicle id="route4_205" type="default_type" route="route4" depart="773" />
    <vehicle id="route2_206" type="default_type" route="route2" depart="774" />
    <vehicle id="route1_207" type="default_type" route="route1" depart="777" />
    <vehicle id="route1_208" type="default_type" route="route1" depart="781" />
    <vehicle id="route2_209" type="default_type" route="route2" depart="782" />
    <vehicle id="route2_210" type="default_type" route="route2" depart="784" />
    <vehicle id="route0_211" type="default_type" route="route0" depart="785" />
    <vehicle id="route4_212" type="default_type" route="route4" depart="786" />
    <vehicle id="route1_213" type="default_type" route="route1" depart="787" />
    <vehicle id="route2_214" type="default_type" route="route2" depart="788" />
    <vehicle id="route2_215" type="default_type" route="route2" depart="789" />
    <vehicle id="route4_216" type="default_type" route="route4" depart="791" />
    <vehicle id="route3_217" type="default_type" route="route3" depart="794" />
    <vehicle id="route0_218" type="default_type" route="route0" depart="806" />
    <vehicle id="route2_219" type="default_type" route="route2" depart="806" />
    <vehicle id="route5_220" type="default_type" route="route5" depart="808" />
    <vehicle id="route0_221" type="default_type" route="route0" depart="811" />
    <vehicle id="route2_222" type="default_type" route="route2" depart="812" />
    <vehicle id="route5_223" type="default_type" route="route5" depart="822" />
    <vehicle id="route0_224" type="default_type" route="route0" depart="825" />
    <vehicle id="route3_225" type="default_type" route="route3" depart="825" />
    <vehicle id="route3_226" type="default_type" route="route3" depart="826" />
    <vehicle id="route5_227" type="default_type" route="route5" depart="834" />
    <vehicle id="route0_228" type="default_type" route="route0" depart="835" />
    <vehicle id="route4_229" type="default_type" route="route4" depart="836" />
    <vehicle id="route5_230" type="default_type" route="route5" depart="837" />
    <vehicle id="route4_231" type="default_type" route="route4" depart="838" />
    <vehicle id="route2_232" type="default_type" route="route2" depart="843" />
    <vehicle id="route1_233" type="default_type" route="route1" depart="845" />
    <vehicle id="route2_234" type="default_type" route="route2" depart="847" />
    <vehicle id="route2_235" type="default_type" route="route2" depart="850" />
    <vehicle id="route2_236" type="default_type" route="route2" depart="851" />
    <vehicle id="route5_237" type="default_type" route="route5" depart="853" />
    <vehicle id="route4_238" type="default_type" route="route4" depart="862" />
    <vehicle id="route2_239" type="default_type" route="route2" depart="871" />
    <vehicle id="route1_240" type="default_type" route="route1" depart="874" />
    <vehicle id="route2_241" type="default_type" route="route2" depart="879" />
    <vehicle id="route1_242" type="default_type" route="route1" depart="889" />
    <vehicle id="route3_243" type="default_type" route="route3" depart="892" />
    <vehicle id="route1_244" type="default_type" route="route1" depart="899" />
    <vehicle id="route1_245" type="default_type" route="route1" depart="900" />
    <vehicle id="route0_246" type="default_type" route="route0" depart="904" />
    <vehicle id="route1_247" type="default_type" route="route1" depart="905" />
    <vehicle id="route4_248" type="default_type" route="route4" depart="916" />
    <vehicle id="route5_249" type="default_type" route="route5" depart="919" />
    <vehicle id="route3_250" type="default_type" route="route3" depart="923" />
    <vehicle id="route0_251" type="default_type" route="route0" depart="924" />
    <vehicle id="route4_252" type="default_type" route="route4" depart="925" />
    <vehicle id="route3_253" type="default_type" route="route3" depart="926" />
    <vehicle id="route1_254" type="default_type" route="route1" depart="927" />
    <vehicle id="route3_255" type="default_type" route="route3" depart="932" />
    <vehicle id="route2_256" type="default_type" route="route2" depart="933" />
    <vehicle id="route4_257" type="default_type" route="route4" depart="933" />
    <vehicle id="route1_258" type="default_type" route="route1" depart="936" />
    <vehicle id="route2_259" type="default_type" route="route2" depart="937" />
    <vehicle id="route3_260" type="default_type" route="route3" depart="940" />
    <vehicle id="route4_261" type="default_type" route="route4" depart="941" />
    <vehicle id="route3_262" type="default_type" route="route3" depart="952" />
    <vehicle id="route5_263" type="default_type" route="route5" depart="952" />
    <vehicle id="route2_264" type="default_type" route="route2" depart="953" />
    <vehicle id="route4_265" type="default_type" route="route4" depart="954" />
    <vehicle id="route4_266" type="default_type" route="route4" depart="956" />
    <vehicle id="route5_267" type="default_type" route="route5" depart="958" />
    <vehicle id="route3_268" type="default_type" route="route3" depart="974" />
    <vehicle id="route4_269" type="default_type" route="route4" depart="976" />
    <vehicle id="route4_270" type="default_type" route="route4" depart="977" />
    <vehicle id="route5_271" type="default_type" route="route5" depart="979" />
    <vehicle id="route5_272" type="default_type" route="route5" depart="984" />
    <vehicle id="route2_273" type="default_type" route="route2" depart="993" />
    <vehicle id="route2_274" type="default_type" route="route2" depart="994" />
    <vehicle id="route3_275" type="default_type" route="route3" depart="994" />
    <vehicle id="route3_276" type="default_type" route="route3" depart="1003" />
    <vehicle id="route4_277" type="default_type" route="route4" depart="1008" />
    <vehicle id="route0_278" type="default_type" route="route0" depart="1011" />
    <vehicle id="route4_279" type="default_type" route="route4" depart="1015" />
    <vehicle id="route2_280" type="default_type" route="route2" depart="1020" />
    <vehicle id="route1_281" type="default_type" route="route1" depart="1033" />
    <vehicle id="route2_282" type="default_type" route="route2" depart="1034" />
    <vehicle id="route2_283" type="default_type" route="route2" depart="1038" />
    <vehicle id="route3_284" type="default_type" route="route3" depart="1038" />
    <vehicle id="route1_285" type="default_type" route="route1" depart="1039" />
    <vehicle id="route4_286" type="default_type" route="route4" depart="1041" />
    <vehicle id="route3_287" type="default_type" route="route3" depart="1046" />
    <vehicle id="route4_288" type="default_type" route="route4" depart="1050" />
    <vehicle id="route2_289" type="default_type" route="route2" depart="1057" />
    <vehicle id="route0_290" type="default_type" route="route0" depart="1059" />
    <vehicle id="route1_291" type="default_type" route="route1" depart="1067" />
    <vehicle id="route3_292" type="default_type" route="route3" depart="1072" />
    <vehicle id="route3_293" type="default_type" route="route3" depart="1075" />
    <vehicle id="route1_294" type="default_type" route="route1" depart="1088" />
    <vehicle id="route2_295" type="default_type" route="route2" depart="1091" />
    <vehicle id="route2_296" type="default_type" route="route2" depart="1094" />
    <vehicle id="route1_297" type="default_type" route="route1" depart="1098" />
    <vehicle id="route1_298" type="default_type" route="route1" depart="1099" />
    <vehicle id="route2_299" type="default_type" route="route2" depart="1103" />
    <vehicle id="route4_300" type="default_type" route="route4" depart="1105" />
    <vehicle id="route2_301" type="default_type" route="route2" depart="1107" />
    <vehicle id="route4_302" type="default_type" route="route4" depart="1113" />
    <vehicle id="route5_303" type="default_type" route="route5" depart="1116" />
    <vehicle id="route1_304" type="default_type" route="route1" depart="1117" />
    <vehicle id="route3_305" type="default_type" route="route3" depart="1122" />
    <vehicle id="route2_306" type="default_type" route="route2" depart="1125" />
    <vehicle id="route4_307" type="default_type" route="route4" depart="1125" />
    <vehicle id="route5_308" type="default_type" route="route5" depart="1127" />
    <vehicle id="route5_309" type="default_type" route="route5" depart="1129" />
    <vehicle id="route3_310" type="default_type" route="route3" depart="1134" />
    <vehicle id="route0_311" type="default_type" route="route0" depart="1140" />
    <vehicle id="route1_312" type="default_type" route="route1" depart="1140" />
    <vehicle id="route1_313" type="default_type" route="route1" depart="1141" />
    <vehicle id="route4_314" type="default_type" route="route4" depart="1142" />
    <vehicle id="route4_315" type="default_type" route="route4" depart="1145" />
    <vehicle id="route0_316" type="default_type" route="route0" depart="1152" />
    <vehicle id="route2_317" type="default_type" route="route2" depart="1152" />
    <vehicle id="route2_318" type="default_type" route="route2" depart="1156" />
    <vehicle id="route0_319" type="default_type" route="route0" depart="1159" />
    <vehicle id="route0_320" type="default_type" route="route0" depart="1161" />
    <vehicle id="route0_321" type="default_type" route="route0" depart="1163" />
    <vehicle id="route4_322" type="default_type" route="route4" depart="1173" />
    <vehicle id="route1_323" type="default_type" route="route1" depart="1175" />
    <vehicle id="route0_324" type="default_type" route="route0" depart="1184" />
    <vehicle id="route3_325" type="default_type" route="route3" depart="1185" />
    <vehicle id="route5_326" type="default_type" route="route5" depart="1185" />
    <vehicle id="route4_327" type="default_type" route="route4" depart="1188" />
    <vehicle id="route4_328" type="default_type" route="route4" depart="1195" />
    <vehicle id="route3_329" type="default_type" route="route3" depart="1196" />
    <vehicle id="route1_330" type="default_type" route="route1" depart="1198" />
    <vehicle id="route0_331" type="default_type" route="route0" depart="1202" />
    <vehicle id="route3_332" type="default_type" route="route3" depart="1202" />
    <vehicle id="route3_333" type="default_type" route="route3" depart="1204" />
    <vehicle id="route2_334" type="default_type" route="route2" depart="1206" />
    <vehicle id="route1_335" type="default_type" route="route1" depart="1207" />
    <vehicle id="route0_336" type="default_type" route="route0" depart="1217" />
    <vehicle id="route4_337" type="default_type" route="route4" depart="1217" />
    <vehicle id="route4_338" type="default_type" route="route4" depart="1222" />
    <vehicle id="route5_339" type="default_type" route="route5" depart="1225" />
    <vehicle id="route5_340" type="default_type" route="route5" depart="1231" />
    <vehicle id="route0_341" type="default_type" route="route0" depart="1236" />
    <vehicle id="route2_342" type="default_type" route="route2" depart="1236" />
    <vehicle id="route4_343" type="default_type" route="route4" depart="1238" />
    <vehicle id="route4_344" type="default_type" route="route4" depart="1239" />
    <vehicle id="route5_345" type="default_type" route="route5" depart="1239" />
    <vehicle id="route1_346" type="default_type" route="route1" depart="1241" />
    <vehicle id="route4_347" type="default_type" route="route4" depart="1241" />
    <vehicle id="route5_348" type="default_type" route="route5" depart="1245" />
    <vehicle id="route1_349" type="default_type" route="route1" depart="1251" />
    <vehicle id="route1_350" type="default_type" route="route1" depart="1257" />
    <vehicle id="route3_351" type="default_type" route="route3" depart="1259" />
    <vehicle id="route0_352" type="default_type" route="route0" depart="1265" />
    <vehicle id="route4_353" type="default_type" route="route4" depart="1266" />
    <vehicle id="route2_354" type="default_type" route="route2" depart="1270" />
    <vehicle id="route5_355" type="default_type" route="route5" depart="1275" />
    <vehicle id="route2_356" type="default_type" route="route2" depart="1285" />
    <vehicle id="route4_357" type="default_type" route="route4" depart="1287" />
    <vehicle id="route3_358" type="default_type" route="route3" depart="1289" />
    <vehicle id="route3_359" type="default_type" route="route3" depart="1291" />
    <vehicle id="route0_360" type="default_type" route="route0" depart="1305" />
    <vehicle id="route1_361" type="default_type" route="route1" depart="1307" />
    <vehicle id="route3_362" type="default_type" route="route3" depart="1309" />
    <vehicle id="route1_363" type="default_type" route="route1" depart="1315" />
    <vehicle id="route1_364" type="default_type" route="route1" depart="1318" />
    <vehicle id="route1_365" type="default_type" route="route1" depart="1320" />
    <vehicle id="route0_366" type="default_type" route="route0" depart="1323" />
    <vehicle id="route1_367" type="default_type" route="route1" depart="1325" />
    <vehicle id="route2_368" type="default_type" route="route2" depart="1330" />