<routes>
        <vType id="default_type" accel="0.8" decel="4.5" sigma="0.5" length="5" minGap="2.5" maxSpeed="16.67" guiShape="passenger"/>

        <route id="route0" edges="0to1 1to2 2to3 3to4" />
        <route id="route1" edges="1-to1 1to1+" />
        <route id="route2" edges="1+to1 1to1-" />
        <route id="route3" edges="0to1 1to2 2to3 3to3-" />
        <route id="route4" edges="0to1 1to2 2to2+" />
        <route id="route5" edges="0to1 1to1+" />
        <route id="route6" edges="2+to2 2to1 1to0" />
        <route id="route7" edges="2+to2 2to3 3to4" />
        <route id="route8" edges="3-to3 3to2 2to1 1to0" />
        <route id="route9" edges="3-to3 3to4" />
        <route id="route10" edges="4to3 3to2 2to2+" />
        <route id="route11" edges="4to3 3to2 2to1 1to1+" />
        <route id="route12" edges="4to3 3to2 2to1 1to0" />
        
    <vehicle id="route1_0" type="default_type" route="route1" depart="0" />
    <vehicle id="route9_1" type="default_type" route="route9" depart="0" />
    <vehicle id="route12_2" type="default_type" route="route12" depart="0" />
    <vehicle id="route6_3" type="default_type" route="route6" depart="1" />
    <vehicle id="route2_4" type="default_type" route="route2" depart="3" />
    <vehicle id="route2_5" type="default_type" route="route2" depart="5" />
    <vehicle id="route11_6" type="default_type" route="route11" depart="6" />
    <vehicle id="route9_7" type="default_type" route="route9" depart="7" />
    <vehicle id="route7_8" type="default_type" route="route7" depart="9" />
    <vehicle id="route9_9" type="default_type" route="route9" depart="9" />
    <vehicle id="route9_10" type="default_type" route="route9" depart="20" />
    <vehicle id="route4_11" type="default_type" route="route4" depart="22" />
    <vehicle id="route11_12" type="default_type" route="route11" depart="22" />
    <vehicle id="route12_13" type="default_type" route="route12" depart="24" />
    <vehicle id="route4_14" type="default_type" route="route4" depart="26" />
    <vehicle id="route4_15" type="default_type" route="route4" depart="28" />
    <vehicle id="route4_16" type="default_type" route="route4" depart="30" />
    <vehicle id="route12_17" type="default_type" route="route12" depart="31" />
    <vehicle id="route11_18" type="default_type" route="route11" depart="32" />
    <vehicle id="route0_19" type="default_type" route="route0" depart="37" />
    <vehicle id="route12_20" type="default_type" route="route12" depart="37" />
    <vehicle id="route7_21" type="default_type" route="route7" depart="38" />
    <vehicle id="route10_22" type="default_type" route="route10" depart="38" />
    <vehicle id="route11_23" type="default_type" route="route11" depart="39" />
    <vehicle id="route8_24" type="default_type" route="route8" depart="40" />
    <vehicle id="route10_25" type="default_type" route="route10" depart="41" />
    <vehicle id="route4_26" type="default_type" route="route4" depart="45" />
    <vehicle id="route0_27" type="default_type" route="route0" depart="46" />
    <vehicle id="route0_28" type="default_type" route="route0" depart="49" />
    <vehicle id="route8_29" type="default_type" route="route8" depart="52" />
    <vehicle id="route1_30" type="default_type" route="route1" depart="55" />
    <vehicle id="route0_31" type="default_type" route="route0" depart="56" />
    <vehicle id="route11_32" type="default_type" route="route11" depart="62" />
    <vehicle id="route7_33" type="default_type" route="route7" depart="63" />
    <vehicle id="route6_34" type="default_type" route="route6" depart="65" />
    <vehicle id="route6_35" type="default_type" route="route6" depart="66" />
    <vehicle id="route11_36" type="default_type" route="route11" depart="67" />
    <vehicle id="route11_37" type="default_type" route="route11" depart="69" />
    <vehicle id="route7_38" type="default_type" route="route7" depart="73" />
    <vehicle id="route4_39" type="default_type" route="route4" depart="74" />
    <vehicle id="route7_40" type="default_type" route="route7" depart="76" />
    <vehicle id="route12_41" type="default_type" route="route12" depart="77" />
    <vehicle id="route12_42" type="default_type" route="route12" depart="78" />
    <vehicle id="route6_43" type="default_type" route="route6" depart="79" />
    <vehicle id="route7_44" type="default_type" route="route7" depart="79" />
    <vehicle id="route9_45" type="default_type" route="route9" depart="80" />
    <vehicle id="route7_46" type="default_type" route="route7" depart="86" />
    <vehicle id="route2_47" type="default_type" route="route2" depart="87" />
    <vehicle id="route8_48" type="default_type" route="route8" depart="87" />
    <vehicle id="route8_49" type="default_type" route="route8" depart="89" />
    <vehicle id="route11_50" type="default_type" route="route11" depart="89" />
    <vehicle id="route4_51" type="default_type" route="route4" depart="90" />
    <vehicle id="route1_52" type="default_type" route="route1" depart="91" />
    <vehicle id="route2_53" type="default_type" route="route2" depart="91" />
    <vehicle id="route10_54" type="default_type" route="route10" depart="91" />
    <vehicle id="route9_55" type="default_type" route="route9" depart="101" />
    <vehicle id="route8_56" type="default_type" route="route8" depart="105" />
    <vehicle id="route1_57" type="default_type" route="route1" depart="106" />
    <vehicle id="route0_58" type="default_type" route="route0" depart="107" />
    <vehicle id="route10_59" type="default_type" route="route10" depart="107" />
    <vehicle id="route4_60" type="default_type" route="route4" depart="108" />
    <vehicle id="route12_61" type="default_type" route="route12" depart="109" />
    <vehicle id="route7_62" type="default_type" route="route7" depart="110" />
    <vehicle id="route7_63" type="default_type" route="route7" depart="111" />
    <vehicle id="route9_64" type="default_type" route="route9" depart="111" />
    <vehicle id="route7_65" type="default_type" route="route7" depart="114" />
    <vehicle id="route10_66" type="default_type" route="route10" depart="115" />
    <vehicle id="route9_67" type="default_type" route="route9" depart="119" />
    <vehicle id="route9_68" type="default_type" route="route9" depart="123" />
    <vehicle id="route10_69" type="default_type" route="route10" depart="123" />
    <vehicle id="route6_70" type="default_type" route="route6" depart="127" />
    <vehicle id="route5_71" type="default_type" route="route5" depart="130" />
    <vehicle id="route5_72" type="default_type" route="route5" depart="132" />
    <vehicle id="route6_73" type="default_type" route="route6" depart="133" />
    <vehicle id="route9_74" type="default_type" route="route9" depart="133" />
    <vehicle id="route0_75" type="default_type" route="route0" depart="139" />
    <vehicle id="route3_76" type="default_type" route="route3" depart="141" />
    <vehicle id="route2_77" type="default_type" route="route2" depart="144" />
    <vehicle id="route8_78" type="default_type" route="route8" depart="148" />
    <vehicle id="route2_79" type="default_type" route="route2" depart="149" />
    <vehicle id="route11_80" type="default_type" route="route11" depart="150" />
    <vehicle id="route12_81" type="default_type" route="route12" depart="150" />
    <vehicle id="route2_82" type="default_type" route="route2" depart="152" />
    <vehicle id="route5_83" type="default_type" route="route5" depart="152" />
    <vehicle id="route8_84" type="default_type" route="route8" depart="152" />
    <vehicle id="route9_85" type="default_type" route="route9" depart="157" />
    <vehicle id="route10_86" type="default_type" route="route10" depart="161" />
    <vehicle id="route6_87" type="default_type" route="route6" depart="162" />
    <vehicle id="route1_88" type="default_type" route="route1" depart="163" />
    <vehicle id="route3_89" type="default_type" route="route3" depart="163" />
    <vehicle id="route7_90" type="default_type" route="route7" depart="163" />
    <vehicle id="route8_91" type="default_type" route="route8" depart="165" />
    <vehicle id="route4_92" type="default_type" route="route4" depart="166" />
    <vehicle id="route9_93" type="default_type" route="route9" depart="166" />
    <vehicle id="route1_94" type="default_type" route="route1" depart="167" />
    <vehicle id="route4_95" type="default_type" route="route4" depart="169" />
    <vehicle id="route11_96" type="default_type" route="route11" depart="170" />
    <vehicle id="route7_97" type="default_type" route="route7" depart="171" />
    <vehicle id="route9_98" type="default_type" route="route9" depart="178" />
    <vehicle id="route3_99" type="default_type" route="route3" depart="179" />
    <vehicle id="route2_100" type="default_type" route="route2" depart="180" />
    <vehicle id="route9_101" type="default_type" route="route9" depart="182" />
    <vehicle id="route8_102" type="default_type" route="route8" depart="186" />
    <vehicle id="route6_103" type="default_type" route="route6" depart="187" />
    <vehicle id="route9_104" type="default_type" route="route9" depart="188" />
    <vehicle id="route7_105" type="default_type" route="route7" depart="193" />
    <vehicle id="route1_106" type="default_type" route="route1" depart="195" />
    <vehicle id="route8_107" type="default_type" route="route8" depart="195" />
    <vehicle id="route2_108" type="default_type" route="route2" depart="197" />
    <vehicle id="route7_109" type="default_type" route="route7" depart="197" />
    <vehicle id="route0_110" type="default_type" route="route0" depart="199" />
    <vehicle id="route11_111" type="default_type" route="route11" depart="202" />
    <vehicle id="route1_112" type="default_type" route="route1" depart="203" />
    <vehicle id="route9_113" type="default_type" route="route9" depart="206" />
    <vehicle id="route1_114" type="default_type" route="route1" depart="208" />
    <vehicle id="route5_115" type="default_type" route="route5" depart="210" />
    <vehicle id="route5_116" type="default_type" route="route5" depart="211" />
    <vehicle id="route12_117" type="default_type" route="route12" depart="211" />
    <vehicle id="route12_118" type="default_type" route="route12" depart="215" />
    <vehicle id="route9_119" type="default_type" route="route9" depart="216" />
    <vehicle id="route4_120" type="default_type" route="route4" depart="217" />
    <vehicle id="route2_121" type="default_type" route="route2" depart="218" />
    <vehicle id="route10_122" type="default_type" route="route10" depart="218" />
    <vehicle id="route3_123" type="default_type" route="route3" depart="219" />
    <vehicle id="route10_124" type="default_type" route="route10" depart="219" />
    <vehicle id="route10_125" type="default_type" route="route10" depart="223" />
    <vehicle id="route12_126" type="default_type" route="route12" depart="224" />
    <vehicle id="route7_127" type="default_type" route="route7" depart="225" />
    <vehicle id="route3_128" type="default_type" route="route3" depart="228" />
    <vehicle id="route0_129" type="default_type" route="route0" depart="230" />
    <vehicle id="route3_130" type="default_type" route="route3" depart="232" />
    <vehicle id="route4_131" type="default_type" route="route4" depart="233" />
    <vehicle id="route1_132" type="default_type" route="route1" depart="234" />
    <vehicle id="route9_133" type="default_type" route="route9" depart="240" />
    <vehicle id="route1_134" type="default_type" route="route1" depart="241" />
    <vehicle id="route8_135" type="default_type" route="route8" depart="241" />
    <vehicle id="route11_136" type="default_type" route="route11" depart="243" />
    <vehicle id="route11_137" type="default_type" route="route11" depart="244" />
    <vehicle id="route6_138" type="default_type" route="route6" depart="246" />
    <vehicle id="route9_139" type="default_type" route="route9" depart="246" />
    <vehicle id="route0_140" type="default_type" route="route0" depart="247" />
    <vehicle id="route6_141" type="default_type" route="route6" depart="250" />
    <vehicle id="route11_142" type="default_type" route="route11" depart="254" />
    <vehicle id="route11_143" type="default_type" route="route11" depart="255" />
    <vehicle id="route1_144" type="default_type" route="route1" depart="256" />
    <vehicle id="route11_145" type="default_type" route="route11" depart="258" />
    <vehicle id="route2_146" type="default_type" route="route2" depart="259" />
    <vehicle id="route6_147" type="default_type" route="route6" depart="259" />
    <vehicle id="route8_148" type="default_type" route="route8" depart="261" />
    <vehicle id="route0_149" type="default_type" route="route0" depart="262" />
    <vehicle id="route4_150" type="default_type" route="route4" depart="263" />
    <vehicle id="route11_151" type="default_type" route="route11" depart="263" />
    <vehicle id="route3_152" type="default_type" route="route3" depart="266" />
    <vehicle id="route11_153" type="default_type" route="route11" depart="266" />
    <vehicle id="route7_154" type="default_type" route="route7" depart="270" />
    <vehicle id="route8_155" type="default_type" route="route8" depart="272" />
    <vehicle id="route7_156" type="default_type" route="route7" depart="274" />
    <vehicle id="route10_157" type="default_type" route="route10" depart="278" />
    <vehicle id="route9_158" type="default_type" route="route9" depart="279" />
    <vehicle id="route2_159" type="default_type" route="route2" depart="281" />
    <vehicle id="route7_160" type="default_type" route="route7" depart="285" />
    <vehicle id="route0_161" type="default_type" route="route0" depart="287" />
    <vehicle id="route8_162" type="default_type" route="route8" depart="287" />
    <vehicle id="route9_163" type="default_type" route="route9" depart="289" />
    <vehicle id="route5_164" type="default_type" route="route5" depart="292" />
    <vehicle id="route9_165" type="default_type" route="route9" depart="295" />
    <vehicle id="route6_166" type="default_type" route="route6" depart="297" />
    <vehicle id="route8_167" type="default_type" route="route8" depart="297" />
    <vehicle id="route6_168" type="default_type" route="route6" depart="300" />
    <vehicle id="route12_169" type="default_type" route="route12" depart="300" />
    <vehicle id="route1_170" type="default_type" route="route1" depart="304" />
    <vehicle id="route2_171" type="default_type" route="route2" depart="304" />
    <vehicle id="route6_172" type="default_type" route="route6" depart="304" />
    <vehicle id="route1_173" type="default_type" route="route1" depart="305" />
    <vehicle id="route6_174" type="default_type" route="route6" depart="307" />
    <vehicle id="route6_175" type="default_type" route="route6" depart="308" />
    <vehicle id="route3_176" type="default_type" route="route3" depart="310" />
    <vehicle id="route2_177" type="default_type" route="route2" depart="313" />
    <vehicle id="route10_178" type="default_type" route="route10" depart="313" />
    <vehicle id="route12_179" type="default_type" route="route12" depart="314" />
    <vehicle id="route4_180" type="default_type" route="route4" depart="315" />
    <vehicle id="route6_181" type="default_type" route="route6" depart="315" />
    <vehicle id="route8_182" type="default_type" route="route8" depart="318" />
    <vehicle id="route5_183" type="default_type" route="route5" depart="319" />
    <vehicle id="route10_184" type="default_type" route="route10" depart="321" />
    <vehicle id="route9_185" type="default_type" route="route9" depart="323" />
    <vehicle id="route9_186" type="default_type" route="route9" depart="327" />
    <vehicle id="route9_187" type="default_type" route="route9" depart="330" />
    <vehicle id="route7_188" type="default_type" route="route7" depart="331" />
    <vehicle id="route8_189" type="default_type" route="route8" depart="332" />
    <vehicle id="route8_190" type="default_type" route="route8" depart="334" />
    <vehicle id="route0_191" type="default_type" route="route0" depart="335" />
    <vehicle id="route4_192" type="default_type" route="route4" depart="335" />
    <vehicle id="route8_193" type="default_type" route="route8" depart="335" />
    <vehicle id="route10_194" type="default_type" route="route10" depart="337" />
    <vehicle id="route11_195" type="default_type" route="route11" depart="337" />
    <vehicle id="route5_196" type="default_type" route="route5" depart="340" />
    <vehicle id="route2_197" type="default_type" route="route2" depart="341" />
    <vehicle id="route5_198" type="default_type" route="route5" depart="342" />
    <vehicle id="route6_199" type="default_type" route="route6" depart="342" />
    <vehicle id="route12_200" type="default_type" route="route12" depart="345" />
    <vehicle id="route3_201" type="default_type" route="route3" depart="346" />
    <vehicle id="route10_202" type="default_type" route="route10" depart="349" />
    <vehicle id="route12_203" type="default_type" route="route12" depart="353" />
    <vehicle id="route7_204" type="default_type" route="route7" depart="354" />
    <vehicle id="route1_205" type="default_type" route="route1" depart="357" />
    <vehicle id="route5_206" type="default_type" route="route5" depart="357" />
    <vehicle id="route9_207" type="default_type" route="route9" depart="358" />
    <vehicle id="route7_208" type="default_type" route="route7" depart="360" />
    <vehicle id="route1_209" type="default_type" route="route1" depart="361" />
    <vehicle id="route0_210" type="default_type" route="route0" depart="362" />
    <vehicle id="route4_211" type="default_type" route="route4" depart="362" />
    <vehicle id="route1_212" type="default_type" route="route1" depart="363" />
    <vehicle id="route4_213" type="default_type" route="route4" depart="363" />
    <vehicle id="route11_214" type="default_type" route="route11" depart="363" />
    <vehicle id="route4_215" type="default_type" route="route4" depart="364" />
    <vehicle id="route5_216" type="default_type" route="route5" depart="365" />
    <vehicle id="route9_217" type="default_type" route="route9" depart="366" />
    <vehicle id="route0_218" type="default_type" route="route0" depart="372" />
    <vehicle id="route2_219" type="default_type" route="route2" depart="372" />
    <vehicle id="route4_220" type="default_type" route="route4" depart="373" />
    <vehicle id="route4_221" type="default_type" route="route4" depart="374" />
    <vehicle id="route12_222" type="default_type" route="route12" depart="374" />
    <vehicle id="route10_223" type="default_type" route="route10" depart="379" />
    <vehicle id="route10_224" type="default_type" route="route10" depart="380" />
    <vehicle id="route0_225" type="default_type" route="route0" depart="381" />
    <vehicle id="route6_226" type="default_type" route="route6" depart="381" />
    <vehicle id="route4_227" type="default_type" route="route4" depart="385" />
    <vehicle id="route5_228" type="default_type" route="route5" depart="385" />
    <vehicle id="route2_229" type="default_type" route="route2" depart="386" />
    <vehicle id="route9_230" type="default_type" route="route9" depart="386" />
    <vehicle id="route1_231" type="default_type" route="route1" depart="387" />
    <vehicle id="route3_232" type="default_type" route="route3" depart="389" />
    <vehicle id="route1_233" type="default_type" route="route1" depart="390" />
    <vehicle id="route1_234" type="default_type" route="route1" depart="391" />
    <vehicle id="route6_235" type="default_type" route="route6" depart="392" />
    <vehicle id="route12_236" type="default_type" route="route12" depart="392" />
    <vehicle id="route1_237" type="default_type" route="route1" depart="394" />
    <vehicle id="route2_238" type="default_type" route="route2" depart="398" />
    <vehicle id="route2_239" type="default_type" route="route2" depart="402" />
    <vehicle id="route6_240" type="default_type" route="route6" depart="403" />
    <vehicle id="route11_241" type="default_type" route="route11" depart="405" />
    <vehicle id="route5_242" type="default_type" route="route5" depart="410" />
    <vehicle id="route12_243" type="default_type" route="route12" depart="411" />
    <vehicle id="route0_244" type="default_type" route="route0" depart="415" />
    <vehicle id="route6_245" type="default_type" route="route6" depart="415" />
    <vehicle id="route3_246" type="default_type" route="route3" depart="417" />
    <vehicle id="route10_247" type="default_type" route="route10" depart="417" />
    <vehicle id="route1_248" type="default_type" route="route1" depart="423" />
    <vehicle id="route7_249" type="default_type" route="route7" depart="424" />
    <vehicle id="route3_250" type="default_type" route="route3" depart="426" />
    <vehicle id="route6_251" type="default_type" route="route6" depart="426" />
    <vehicle id="route3_252" type="default_type" route="route3" depart="427" />
    <vehicle id="route8_253" type="default_type" route="route8" depart="427" />
    <vehicle id="route12_254" type="default_type" route="route12" depart="427" />
    <vehicle id="route5_255" type="default_type" route="route5" depart="430" />
    <vehicle id="route10_256" type="default_type" route="route10" depart="430" />
    <vehicle id="route12_257" type="default_type" route="route12" depart="430" />
    <vehicle id="route1_258" type="default_type" route="route1" depart="432" />
    <vehicle id="route8_259" type="default_type" route="route8" depart="432" />
    <vehicle id="route1_260" type="default_type" route="route1" depart="434" />
    <vehicle id="route8_261" type="default_type" route="route8" depart="434" />
    <vehicle id="route8_262" type="default_type" route="route8" depart="439" />
    <vehicle id="route10_263" type="default_type" route="route10" depart="439" />
    <vehicle id="route0_264" type="default_type" route="route0" depart="440" />
    <vehicle id="route8_265" type="default_type" route="route8" depart="440" />
    <vehicle id="route7_266" type="default_type" route="route7" depart="441" />
    <vehicle id="route7_267" type="default_type" route="route7" depart="442" />
    <vehicle id="route10_268" type="default_type" route="route10" depart="449" />
    <vehicle id="route10_269" type="default_type" route="route10" depart="450" />
    <vehicle id="route3_270" type="default_type" route="route3" depart="451" />
    <vehicle id="route3_271" type="default_type" route="route3" depart="452" />
    <vehicle id="route7_272" type="default_type" route="route7" depart="454" />
    <vehicle id="route6_273" type="default_type" route="route6" depart="458" />
    <vehicle id="route12_274" type="default_type" route="route12" depart="458" />
    <vehicle id="route0_275" type="default_type" route="route0" depart="459" />
    <vehicle id="route2_276" type="default_type" route="route2" depart="463" />
    <vehicle id="route7_277" type="default_type" route="route7" depart="465" />
    <vehicle id="route8_278" type="default_type" route="route8" depart="466" />
    <vehicle id="route10_279" type="default_type" route="route10" depart="468" />
    <vehicle id="route12_280" type="default_type" route="route12" depart="470" />
    <vehicle id="route11_281" type="default_type" route="route11" depart="476" />
    <vehicle id="route5_282" type="default_type" route="route5" depart="477" />
    <vehicle id="route3_283" type="default_type" route="route3" depart="479" />
    <vehicle id="route4_284" type="default_type" route="route4" depart="479" />
    <vehicle id="route8_285" type="default_type" route="route8" depart="479" />
    <vehicle id="route10_286" type="default_type" route="route10" depart="480" />
    <vehicle id="route0_287" type="default_type" route="route0" depart="483" />
    <vehicle id="route12_288" type="default_type" route="route12" depart="484" />
    <vehicle id="route0_289" type="default_type" route="route0" depart="488" />
    <vehicle id="route10_290" type="default_type" route="route10" depart="488" />
    <vehicle id="route7_291" type="default_type" route="route7" depart="492" />
    <vehicle id="route0_292" type="default_type" route="route0" depart="495" />
    <vehicle id="route5_293" type="default_type" route="route5" depart="496" />
    <vehicle id="route3_294" type="default_type" route="route3" depart="502" />
    <vehicle id="route9_295" type="default_type" route="route9" depart="503" />
    <vehicle id="route1_296" type="default_type" route="route1" depart="505" />
    <vehicle id="route11_297" type="default_type" route="route11" depart="506" />
    <vehicle id="route4_298" type="default_type" route="route4" depart="507" />
    <vehicle id="route3_299" type="default_type" route="route3" depart="509" />
    <vehicle id="route4_300" type="default_type" route="route4" depart="510" />
    <vehicle id="route1_301" type="default_type" route="route1" depart="511" />
    <vehicle id="route0_302" type="default_type" route="route0" depart="514" />
    <vehicle id="route6_303" type="default_type" route="route6" depart="515" />
    <vehicle id="route8_304" type="default_type" route="route8" depart="515" />
    <vehicle id="route1_305" type="default_type" route="route1" depart="518" />
    <vehicle id="route5_306" type="default_type" route="route5" depart="519" />
    <vehicle id="route7_307" type="default_type" route="route7" depart="519" />
    <vehicle id="route7_308" type="default_type" route="route7" depart="520" />
    <vehicle id="route6_309" type="default_type" route="route6" depart="521" />
    <vehicle id="route8_310" type="default_type" route="route8" depart="523" />
    <vehicle id="route2_311" type="default_type" route="route2" depart="526" />
    <vehicle id="route3_312" type="default_type" route="route3" depart="526" />
    <vehicle id="route9_313" type="default_type" route="route9" depart="526" />
    <vehicle id="route5_314" type="default_type" route="route5" depart="527" />
    <vehicle id="route10_315" type="default_type" route="route10" depart="528" />
    <vehicle id="route9_316" type="default_type" route="route9" depart="531" />
    <vehicle id="route11_317" type="default_type" route="route11" depart="531" />
    <vehicle id="route9_318" type="default_type" route="route9" depart="533" />
    <vehicle id="route12_319" type="default_type" route="route12" depart="534" />
    <vehicle id="route11_320" type="default_type" route="route11" depart="535" />
    <vehicle id="route10_321" type="default_type" route="route10" depart="536" />
    <vehicle id="route9_322" type="default_type" route="route9" depart="541" />
    <vehicle id="route5_323" type="default_type" route="route5" depart="542" />
    <vehicle id="route6_324" type="default_type" route="route6" depart="546" />
    <vehicle id="route2_325" type="default_type" route="route2" depart="547" />
    <vehicle id="route4_326" type="default_type" route="route4" depart="547" />
    <vehicle id="route8_327" type="default_type" route="route8" depart="548" />
    <vehicle id="route11_328" type="default_type" route="route11" depart="551" />
    <vehicle id="route3_329" type="default_type" route="route3" depart="552" />
    <vehicle id="route0_330" type="default_type" route="route0" depart="553" />
    <vehicle id="route10_331" type="default_type" route="route10" depart="554" />
    <vehicle id="route0_332" type="default_type" route="route0" depart="555" />
    <vehicle id="route12_333" type="default_type" route="route12" depart="555" />
    <vehicle id="route10_334" type="default_type" route="route10" depart="556" />
    <vehicle id="route2_335" type="default_type" route="route2" depart="557" />
    <vehicle id="route9_336" type="default_type" route="route9" depart="561" />
    <vehicle id="route0_337" type="default_type" route="route0" depart="562" />
    <vehicle id="route4_338" type="default_type" route="route4" depart="564" />
    <vehicle id="route10_339" type="default_type" route="route10" depart="565" />
    <vehicle id="route7_340" type="default_type" route="route7" depart="568" />
    <vehicle id="route6_341" type="default_type" route="route6" depart="570" />
    <vehicle id="route8_342" type="default_type" route="route8" depart="570" />
    <vehicle id="route9_343" type="default_type" route="route9" depart="571" />
    <vehicle id="route2_344" type="default_type" route="route2" depart="572" />
    <vehicle id="route3_345" type="default_type" route="route3" depart="572" />
    <vehicle id="route11_346" type="default_type" route="route11" depart="572" />
    <vehicle id="route1_347" type="default_type" route="route1" depart="573" />
    <vehicle id="route0_348" type="default_type" route="route0" depart="575" />
    <vehicle id="route6_349" type="default_type" route="route6" depart="577" />
    <vehicle id="route3_350" type="default_type" route="route3" depart="580" />
    <vehicle id="route4_351" type="default_type" route="route4" depart="581" />
    <vehicle id="route11_352" type="default_type" route="route11" depart="583" />
    <vehicle id="route8_353" type="default_type" route="route8" depart="584" />
    <vehicle id="route4_354" type="default_type" route="route4" depart="586" />
    <vehicle id="route11_355" type="default_type" route="route11" depart="588" />
    <vehicle id="route3_356" type="default_type" route="route3" depart="593" />
    <vehicle id="route4_357" type="default_type" route="route4" depart="594" />
    <vehicle id="route2_358" type="default_type" route="route2" depart="595" />
    <vehicle id="route1_359" type="default_type" route="route1" depart="596" />
    <vehicle id="route4_360" type="default_type" route="route4" depart="602" />
    <vehicle id="route4_361" type="default_type" route="route4" depart="603" />
    <vehicle id="route5_362" type="default_type" route="route5" depart="604" />
    <vehicle id="route0_363" type="default_type" route="route0" depart="607" />